Circuit: * G:\09 DROPBOX\CODE\GIT_REPOS\XY_AUDIO_PLOTTER\XY-AFE.asc

WARNING: Less than two connections to node vout.  This node is used by r5.
Direct Newton iteration failed to find .op point.  (Use ".option noopiter" to skip.)
Starting Gmin stepping
Gmin = 10
Gmin = 1.07374
Gmin = 0.115292
Gmin = 0.0123794
Gmin = 0.00132923
vernier = 0.5
vernier = 0.25
vernier = 0.125
vernier = 0.0625
Gmin = 0.00100083
vernier = 0.03125
vernier = 0.015625
vernier = 0.0078125
vernier = 0.00390625
vernier = 0.00195312
Gmin = 0.00100083
vernier = 0.000976562
vernier = 0.000488281
Gmin = 0
Gmin stepping failed

Starting source stepping with srcstepmethod=0
Source Step = 3.0303%
Source Step = 33.3333%
Source Step = 63.6364%
Source Step = 93.9394%
Source stepping succeeded in finding the operating point.


Date: Sat Apr 18 13:33:37 2026
Total elapsed time: 0.528 seconds.

tnom = 27
temp = 27
method = modified trap
totiter = 8073
traniter = 6190
tranpoints = 2027
accept = 1546
rejected = 481
matrix size = 98
fillins = 130
solver = Normal
Avg thread counts: 1.4/2.3/2.3/1.4
Matrix Compiler1: 9.78 KB object code size  4.1/2.6/[1.2]
Matrix Compiler2: 10.52 KB object code size  1.5/2.7/[1.0]

